---------- Begin Simulation Statistics ----------
# Stats desc: Network start
sim_ticks                                    17567600                       # Number of ticks simulated
system.switch_cpus.numCycles                    43919                       # number of cpu cycles simulated
---------- End Simulation Statistics   ----------
---------- Begin Simulation Statistics ----------
# Stats desc: Tensor preparation start
sim_ticks                                    31541600                       # Number of ticks simulated
system.switch_cpus.numCycles                    78854                       # number of cpu cycles simulated
---------- End Simulation Statistics   ----------
---------- Begin Simulation Statistics ----------
# Stats desc: Tensor preparation end
sim_ticks                                     4530400                       # Number of ticks simulated
system.switch_cpus.numCycles                    11326                       # number of cpu cycles simulated
---------- End Simulation Statistics   ----------
---------- Begin Simulation Statistics ----------
# Stats desc: Tensor finalization start
sim_ticks                                   138090000                       # Number of ticks simulated
system.switch_cpus.numCycles                    77485                       # number of cpu cycles simulated
---------- End Simulation Statistics   ----------
---------- Begin Simulation Statistics ----------
# Stats desc: Tensor finalization end
sim_ticks                                   900469200                       # Number of ticks simulated
system.switch_cpus.numCycles                  2251173                       # number of cpu cycles simulated
---------- End Simulation Statistics   ----------
---------- Begin Simulation Statistics ----------
# Stats desc: Tensor preparation start
sim_ticks                                     2400400                       # Number of ticks simulated
system.switch_cpus.numCycles                     6001                       # number of cpu cycles simulated
---------- End Simulation Statistics   ----------
---------- Begin Simulation Statistics ----------
# Stats desc: Tensor preparation end
sim_ticks                                   645966400                       # Number of ticks simulated
system.switch_cpus.numCycles                  1614916                       # number of cpu cycles simulated
---------- End Simulation Statistics   ----------
---------- Begin Simulation Statistics ----------
# Stats desc: Tensor finalization start
sim_ticks                                   739752800                       # Number of ticks simulated
system.switch_cpus.numCycles                    56447                       # number of cpu cycles simulated
---------- End Simulation Statistics   ----------
---------- Begin Simulation Statistics ----------
# Stats desc: Tensor finalization end
sim_ticks                                   903132400                       # Number of ticks simulated
system.switch_cpus.numCycles                  2257831                       # number of cpu cycles simulated
---------- End Simulation Statistics   ----------
---------- Begin Simulation Statistics ----------
# Stats desc: Tensor preparation start
sim_ticks                                     2951600                       # Number of ticks simulated
system.switch_cpus.numCycles                     7379                       # number of cpu cycles simulated
---------- End Simulation Statistics   ----------
---------- Begin Simulation Statistics ----------
# Stats desc: Tensor preparation end
sim_ticks                                   645150800                       # Number of ticks simulated
system.switch_cpus.numCycles                  1612877                       # number of cpu cycles simulated
---------- End Simulation Statistics   ----------
---------- Begin Simulation Statistics ----------
# Stats desc: Tensor finalization start
sim_ticks                                   120826000                       # Number of ticks simulated
system.switch_cpus.numCycles                    28709                       # number of cpu cycles simulated
---------- End Simulation Statistics   ----------
---------- Begin Simulation Statistics ----------
# Stats desc: Tensor finalization end
sim_ticks                                       32000                       # Number of ticks simulated
system.switch_cpus.numCycles                       80                       # number of cpu cycles simulated
---------- End Simulation Statistics   ----------
---------- Begin Simulation Statistics ----------
# Stats desc: Tensor preparation start
sim_ticks                                     2521200                       # Number of ticks simulated
system.switch_cpus.numCycles                     6303                       # number of cpu cycles simulated
---------- End Simulation Statistics   ----------
---------- Begin Simulation Statistics ----------
# Stats desc: Tensor preparation end
sim_ticks                                      838800                       # Number of ticks simulated
system.switch_cpus.numCycles                     2097                       # number of cpu cycles simulated
---------- End Simulation Statistics   ----------
---------- Begin Simulation Statistics ----------
# Stats desc: Tensor finalization start
sim_ticks                                   359541200                       # Number of ticks simulated
system.switch_cpus.numCycles                    31328                       # number of cpu cycles simulated
---------- End Simulation Statistics   ----------
---------- Begin Simulation Statistics ----------
# Stats desc: Tensor finalization end
sim_ticks                                   389451600                       # Number of ticks simulated
system.switch_cpus.numCycles                   973629                       # number of cpu cycles simulated
---------- End Simulation Statistics   ----------
---------- Begin Simulation Statistics ----------
# Stats desc: Tensor preparation start
sim_ticks                                     2324400                       # Number of ticks simulated
system.switch_cpus.numCycles                     5811                       # number of cpu cycles simulated
---------- End Simulation Statistics   ----------
---------- Begin Simulation Statistics ----------
# Stats desc: Tensor preparation end
sim_ticks                                   243380400                       # Number of ticks simulated
system.switch_cpus.numCycles                   608451                       # number of cpu cycles simulated
---------- End Simulation Statistics   ----------
---------- Begin Simulation Statistics ----------
# Stats desc: Tensor finalization start
sim_ticks                                   704071600                       # Number of ticks simulated
system.switch_cpus.numCycles                    41729                       # number of cpu cycles simulated
---------- End Simulation Statistics   ----------
---------- Begin Simulation Statistics ----------
# Stats desc: Tensor finalization end
sim_ticks                                   269489600                       # Number of ticks simulated
system.switch_cpus.numCycles                   673724                       # number of cpu cycles simulated
---------- End Simulation Statistics   ----------
---------- Begin Simulation Statistics ----------
# Stats desc: Tensor preparation start
sim_ticks                                     2257600                       # Number of ticks simulated
system.switch_cpus.numCycles                     5644                       # number of cpu cycles simulated
---------- End Simulation Statistics   ----------
---------- Begin Simulation Statistics ----------
# Stats desc: Tensor preparation end
sim_ticks                                   185989200                       # Number of ticks simulated
system.switch_cpus.numCycles                   464973                       # number of cpu cycles simulated
---------- End Simulation Statistics   ----------
---------- Begin Simulation Statistics ----------
# Stats desc: Tensor finalization start
sim_ticks                                    55946000                       # Number of ticks simulated
system.switch_cpus.numCycles                     6781                       # number of cpu cycles simulated
---------- End Simulation Statistics   ----------
---------- Begin Simulation Statistics ----------
# Stats desc: Tensor finalization end
sim_ticks                                       25600                       # Number of ticks simulated
system.switch_cpus.numCycles                       64                       # number of cpu cycles simulated
---------- End Simulation Statistics   ----------
---------- Begin Simulation Statistics ----------
# Stats desc: Tensor preparation start
sim_ticks                                     2327600                       # Number of ticks simulated
system.switch_cpus.numCycles                     5819                       # number of cpu cycles simulated
---------- End Simulation Statistics   ----------
---------- Begin Simulation Statistics ----------
# Stats desc: Tensor preparation end
sim_ticks                                      815200                       # Number of ticks simulated
system.switch_cpus.numCycles                     2038                       # number of cpu cycles simulated
---------- End Simulation Statistics   ----------
---------- Begin Simulation Statistics ----------
# Stats desc: Tensor finalization start
sim_ticks                                   475404400                       # Number of ticks simulated
system.switch_cpus.numCycles                   123012                       # number of cpu cycles simulated
---------- End Simulation Statistics   ----------
---------- Begin Simulation Statistics ----------
# Stats desc: Tensor finalization end
sim_ticks                                   404228000                       # Number of ticks simulated
system.switch_cpus.numCycles                  1010570                       # number of cpu cycles simulated
---------- End Simulation Statistics   ----------
---------- Begin Simulation Statistics ----------
# Stats desc: Tensor preparation start
sim_ticks                                     2501200                       # Number of ticks simulated
system.switch_cpus.numCycles                     6253                       # number of cpu cycles simulated
---------- End Simulation Statistics   ----------
---------- Begin Simulation Statistics ----------
# Stats desc: Tensor preparation end
sim_ticks                                      865600                       # Number of ticks simulated
system.switch_cpus.numCycles                     2164                       # number of cpu cycles simulated
---------- End Simulation Statistics   ----------
---------- Begin Simulation Statistics ----------
# Stats desc: Tensor finalization start
sim_ticks                                   860980800                       # Number of ticks simulated
system.switch_cpus.numCycles                   164302                       # number of cpu cycles simulated
---------- End Simulation Statistics   ----------
---------- Begin Simulation Statistics ----------
# Stats desc: Tensor finalization end
sim_ticks                                   120407600                       # Number of ticks simulated
system.switch_cpus.numCycles                   301019                       # number of cpu cycles simulated
---------- End Simulation Statistics   ----------
---------- Begin Simulation Statistics ----------
# Stats desc: Tensor preparation start
sim_ticks                                     2283200                       # Number of ticks simulated
system.switch_cpus.numCycles                     5708                       # number of cpu cycles simulated
---------- End Simulation Statistics   ----------
---------- Begin Simulation Statistics ----------
# Stats desc: Tensor preparation end
sim_ticks                                      854000                       # Number of ticks simulated
system.switch_cpus.numCycles                     2135                       # number of cpu cycles simulated
---------- End Simulation Statistics   ----------
---------- Begin Simulation Statistics ----------
# Stats desc: Tensor finalization start
sim_ticks                                   859846000                       # Number of ticks simulated
system.switch_cpus.numCycles                   159257                       # number of cpu cycles simulated
---------- End Simulation Statistics   ----------
---------- Begin Simulation Statistics ----------
# Stats desc: Tensor finalization end
sim_ticks                                   120153600                       # Number of ticks simulated
system.switch_cpus.numCycles                   300384                       # number of cpu cycles simulated
---------- End Simulation Statistics   ----------
---------- Begin Simulation Statistics ----------
# Stats desc: Tensor preparation start
sim_ticks                                     2199200                       # Number of ticks simulated
system.switch_cpus.numCycles                     5498                       # number of cpu cycles simulated
---------- End Simulation Statistics   ----------
---------- Begin Simulation Statistics ----------
# Stats desc: Tensor preparation end
sim_ticks                                      796400                       # Number of ticks simulated
system.switch_cpus.numCycles                     1991                       # number of cpu cycles simulated
---------- End Simulation Statistics   ----------
---------- Begin Simulation Statistics ----------
# Stats desc: Tensor finalization start
sim_ticks                                    29339600                       # Number of ticks simulated
system.switch_cpus.numCycles                     5296                       # number of cpu cycles simulated
---------- End Simulation Statistics   ----------
---------- Begin Simulation Statistics ----------
# Stats desc: Tensor finalization end
sim_ticks                                       24000                       # Number of ticks simulated
system.switch_cpus.numCycles                       60                       # number of cpu cycles simulated
---------- End Simulation Statistics   ----------
---------- Begin Simulation Statistics ----------
# Stats desc: Tensor preparation start
sim_ticks                                     2141200                       # Number of ticks simulated
system.switch_cpus.numCycles                     5353                       # number of cpu cycles simulated
---------- End Simulation Statistics   ----------
---------- Begin Simulation Statistics ----------
# Stats desc: Tensor preparation end
sim_ticks                                      796400                       # Number of ticks simulated
system.switch_cpus.numCycles                     1991                       # number of cpu cycles simulated
---------- End Simulation Statistics   ----------
---------- Begin Simulation Statistics ----------
# Stats desc: Tensor finalization start
sim_ticks                                   790002800                       # Number of ticks simulated
system.switch_cpus.numCycles                   241237                       # number of cpu cycles simulated
---------- End Simulation Statistics   ----------
---------- Begin Simulation Statistics ----------
# Stats desc: Tensor finalization end
sim_ticks                                    61901600                       # Number of ticks simulated
system.switch_cpus.numCycles                   154754                       # number of cpu cycles simulated
---------- End Simulation Statistics   ----------
---------- Begin Simulation Statistics ----------
# Stats desc: Tensor preparation start
sim_ticks                                     2343600                       # Number of ticks simulated
system.switch_cpus.numCycles                     5859                       # number of cpu cycles simulated
---------- End Simulation Statistics   ----------
---------- Begin Simulation Statistics ----------
# Stats desc: Tensor preparation end
sim_ticks                                      806400                       # Number of ticks simulated
system.switch_cpus.numCycles                     2016                       # number of cpu cycles simulated
---------- End Simulation Statistics   ----------
---------- Begin Simulation Statistics ----------
# Stats desc: Tensor finalization start
sim_ticks                                  1568183600                       # Number of ticks simulated
system.switch_cpus.numCycles                   469780                       # number of cpu cycles simulated
---------- End Simulation Statistics   ----------
---------- Begin Simulation Statistics ----------
# Stats desc: Tensor finalization end
sim_ticks                                    61584800                       # Number of ticks simulated
system.switch_cpus.numCycles                   153962                       # number of cpu cycles simulated
---------- End Simulation Statistics   ----------
---------- Begin Simulation Statistics ----------
# Stats desc: Tensor preparation start
sim_ticks                                     2329200                       # Number of ticks simulated
system.switch_cpus.numCycles                     5823                       # number of cpu cycles simulated
---------- End Simulation Statistics   ----------
---------- Begin Simulation Statistics ----------
# Stats desc: Tensor preparation end
sim_ticks                                      817600                       # Number of ticks simulated
system.switch_cpus.numCycles                     2044                       # number of cpu cycles simulated
---------- End Simulation Statistics   ----------
---------- Begin Simulation Statistics ----------
# Stats desc: Tensor finalization start
sim_ticks                                  1567403200                       # Number of ticks simulated
system.switch_cpus.numCycles                   467296                       # number of cpu cycles simulated
---------- End Simulation Statistics   ----------
---------- Begin Simulation Statistics ----------
# Stats desc: Tensor finalization end
sim_ticks                                    65072000                       # Number of ticks simulated
system.switch_cpus.numCycles                   162680                       # number of cpu cycles simulated
---------- End Simulation Statistics   ----------
---------- Begin Simulation Statistics ----------
# Stats desc: Tensor preparation start
sim_ticks                                     2246800                       # Number of ticks simulated
system.switch_cpus.numCycles                     5617                       # number of cpu cycles simulated
---------- End Simulation Statistics   ----------
---------- Begin Simulation Statistics ----------
# Stats desc: Tensor preparation end
sim_ticks                                      718800                       # Number of ticks simulated
system.switch_cpus.numCycles                     1797                       # number of cpu cycles simulated
---------- End Simulation Statistics   ----------
---------- Begin Simulation Statistics ----------
# Stats desc: Tensor finalization start
sim_ticks                                    13553600                       # Number of ticks simulated
system.switch_cpus.numCycles                     5381                       # number of cpu cycles simulated
---------- End Simulation Statistics   ----------
---------- Begin Simulation Statistics ----------
# Stats desc: Tensor finalization end
sim_ticks                                      234400                       # Number of ticks simulated
system.switch_cpus.numCycles                      586                       # number of cpu cycles simulated
---------- End Simulation Statistics   ----------
---------- Begin Simulation Statistics ----------
# Stats desc: Reordering start
sim_ticks                                     2209200                       # Number of ticks simulated
system.switch_cpus.numCycles                     5523                       # number of cpu cycles simulated
---------- End Simulation Statistics   ----------
---------- Begin Simulation Statistics ----------
# Stats desc: Reordering end
sim_ticks                                    11293200                       # Number of ticks simulated
system.switch_cpus.numCycles                    28233                       # number of cpu cycles simulated
---------- End Simulation Statistics   ----------
---------- Begin Simulation Statistics ----------
# Stats desc: Tensor preparation start
sim_ticks                                     3685200                       # Number of ticks simulated
system.switch_cpus.numCycles                     9213                       # number of cpu cycles simulated
---------- End Simulation Statistics   ----------
---------- Begin Simulation Statistics ----------
# Stats desc: Tensor preparation end
sim_ticks                                      765600                       # Number of ticks simulated
system.switch_cpus.numCycles                     1914                       # number of cpu cycles simulated
---------- End Simulation Statistics   ----------
---------- Begin Simulation Statistics ----------
# Stats desc: Tensor finalization start
sim_ticks                                   128932400                       # Number of ticks simulated
system.switch_cpus.numCycles                    77655                       # number of cpu cycles simulated
---------- End Simulation Statistics   ----------
---------- Begin Simulation Statistics ----------
# Stats desc: Tensor finalization end
sim_ticks                                      116000                       # Number of ticks simulated
system.switch_cpus.numCycles                      290                       # number of cpu cycles simulated
---------- End Simulation Statistics   ----------
---------- Begin Simulation Statistics ----------
# Stats desc: Tensor preparation start
sim_ticks                                     2006400                       # Number of ticks simulated
system.switch_cpus.numCycles                     5016                       # number of cpu cycles simulated
---------- End Simulation Statistics   ----------
---------- Begin Simulation Statistics ----------
# Stats desc: Tensor preparation end
sim_ticks                                      836800                       # Number of ticks simulated
system.switch_cpus.numCycles                     2092                       # number of cpu cycles simulated
---------- End Simulation Statistics   ----------
---------- Begin Simulation Statistics ----------
# Stats desc: Tensor finalization start
sim_ticks                                    13594800                       # Number of ticks simulated
system.switch_cpus.numCycles                     8973                       # number of cpu cycles simulated
---------- End Simulation Statistics   ----------
---------- Begin Simulation Statistics ----------
# Stats desc: Tensor finalization end
sim_ticks                                       86800                       # Number of ticks simulated
system.switch_cpus.numCycles                      217                       # number of cpu cycles simulated
---------- End Simulation Statistics   ----------
---------- Begin Simulation Statistics ----------
# Stats desc: Network end
sim_ticks                                      419200                       # Number of ticks simulated
system.switch_cpus.numCycles                     1048                       # number of cpu cycles simulated
---------- End Simulation Statistics   ----------
---------- Begin Simulation Statistics ----------
sim_ticks                                   880732400                       # Number of ticks simulated
system.switch_cpus.numCycles                  2201831                       # number of cpu cycles simulated
---------- End Simulation Statistics   ----------
